/*---------------------------------------------------------------------------*\
  =========                 |
  \\      /  F ield         | OpenFOAM: The Open Source CFD Toolbox
   \\    /   O peration     | Website:  https://openfoam.org
    \\  /    A nd           | Version:  13
     \\/     M anipulation  |
\*---------------------------------------------------------------------------*/
Build  : 13-2946b4ed016f
Exec   : setFields
Date   : Oct 22 2025
Time   : 10:14:16
Host   : "lenovo"
PID    : 95161
I/O    : uncollated
Case   : /home/fede/Documents/teaching/HPCinAerospace/aeroHPC/OpenFOAM/tutorials/shockThermo/shockTube
nProcs : 1
sigFpe : Enabling floating point exception trapping (FOAM_SIGFPE).
fileModificationChecking : Monitoring run-time modified files using timeStampMaster (fileModificationSkew 10)
allowSystemOperations : Allowing user-supplied system call operations

// * * * * * * * * * * * * * * * * * * * * * * * * * * * * * * * * * * * * * //
Create time

Create mesh for time = 0

Reading "setFieldsDict"

Setting field default values
    The 'defaultFieldValues' entry is deprecated, please use 'default'
    Setting internal values of volVectorField U
    Setting internal values of volScalarField T
    Setting internal values of volScalarField p

Setting field region values
    The 'regions' entry is deprecated, please use 'zones'
    Adding cells with center within boxes 1((0.5 -1 -1) (1 1 1))
    Setting internal values of volScalarField T
    Setting internal values of volScalarField p

End

